feeders/Owen Burlington Laid Out/main.glm
clock {
timezone PST+8PDT;
stoptime '2000-01-02 00:00:00';
starttime '2000-01-01 00:00:00';
};

#set minimum_timestep=60;
#set profiler=1;
#set relax_naming_rules=1;
module generators;
module tape;
module climate;
module residential {
implicit_enduses NONE;
};

module powerflow {
solver_method FBS;
NR_iteration_limit 50;
};

object climate {
name Climate;
interpolate QUADRATIC;
tmyfile climate.tmy2;
};

object node {
phases 7N;
nominal_voltage 7200.0;
name BURLINGTON;
bustype SWING;
};

object fuse {
phases 7N;
from nodeR118268299;
name R1182;
current_limit 9999.0 A;
to node20944R1182;
};

object load {
phases 2N;
name 62463027798;
parent node62463027798T62463027880;
load_class R;
constant_power_C 0;
constant_power_B 0.698961;
constant_power_A 0;
nominal_voltage 120;
};

object fuse {
phases 1N;
from nodeF894420129;
name F8944;
current_limit 9999.0 A;
to node20130F8944;
};

object load {
phases 1N;
name 62463024800;
parent node62463024800T62463023775;
load_class R;
constant_power_C 0;
constant_power_B 0;
constant_power_A 6.07365;
nominal_voltage 120;
};

object load {
phases 1N;
name 62463023758;
parent node62463024800T62463023775;
load_class R;
constant_power_C 0;
constant_power_B 0;
constant_power_A 0.880641;
nominal_voltage 120;
};

object load {
phases 2N;
name 62463022720;
parent node62463022720T62463022676;
load_class R;
constant_power_C 0;
constant_power_B 4.54703;
constant_power_A 0;
nominal_voltage 120;
};

object load {
phases 3N;
name 62463021692;
parent node62463021692T62463021663;
load_class R;
constant_power_C 0.0731765;
constant_power_B 0;
constant_power_A 0;
nominal_voltage 120;
};

object load {
phases 2N;
name 62463020586;
parent node62463020586T62463020670;
load_class R;
constant_power_C 0;
constant_power_B 4.16349;
constant_power_A 0;
nominal_voltage 120;
};

object load {
phases 1N;
name 62463019437;
parent node62463019437T62463019414;
load_class R;
constant_power_C 0;
constant_power_B 0;
constant_power_A 5.57655;
nominal_voltage 120;
};

object fuse {
phases 3N;
from nodeF757319850;
name F7573;
current_limit 9999.0 A;
to node19851F7573;
};

object load {
phases 3N;
name 62463019498;
parent node62463019498T62463019467;
load_class R;
constant_power_C 1.51904;
constant_power_B 0;
constant_power_A 0;
nominal_voltage 120;
};

object fuse {
phases 3N;
from nodeF794419848;
name F7944;
current_limit 9999.0 A;
to node19849F7944;
};

object load {
phases 3N;
name 62463022298;
parent node62463022298T62463022289;
load_class R;
constant_power_C 1.6553;
constant_power_B 0;
constant_power_A 0;
nominal_voltage 120;
};

object load {
phases 3N;
name 62463025237;
parent node62463025237T62463024257;
load_class R;
constant_power_C 10.1337;
constant_power_B 0;
constant_power_A 0;
nominal_voltage 120;
};

object fuse {
phases 1N;
from nodeF758219837;
name F7582;
current_limit 9999.0 A;
to node19770F7582;
};

object load {
phases 1N;
name 62463018503;
parent node62463018503T62463017479;
load_class R;
constant_power_C 0;
constant_power_B 0;
constant_power_A 6.3386;
nominal_voltage 120;
};

object load {
phases 1N;
name 62463017349;
parent node62463017349T62463017451;
load_class R;
constant_power_C 0;
constant_power_B 0;
constant_power_A 0.0605598;
nominal_voltage 120;
};

object load {
phases 1N;
name 62463017481;
parent node62463017349T62463017451;
load_class R;
constant_power_C 0;
constant_power_B 0;
constant_power_A 3.48976;
nominal_voltage 120;
};

object load {
phases 1N;
name 62463016405;
parent node62463016405T62463015557;
load_class R;
constant_power_C 0;
constant_power_B 0;
constant_power_A 4.20638;
nominal_voltage 120;
};

object load {
phases 1N;
name 62463014593;
parent node62463016405T62463015557;
load_class R;
constant_power_C 0;
constant_power_B 0;
constant_power_A 5.09964;
nominal_voltage 120;
};

object load {
phases 1N;
name 62463013691;
parent node62463013691T62463013576;
load_class R;
constant_power_C 0;
constant_power_B 0;
constant_power_A 0.156446;
nominal_voltage 120;
};

object load {
phases 1N;
name 62463012543;
parent node62463012543T62463012540;
load_class R;
constant_power_C 0;
constant_power_B 0;
constant_power_A 7.22428;
nominal_voltage 120;
};

object load {
phases 1N;
name 62463014628;
parent node62463014628T62463014734;
load_class R;
constant_power_C 0;
constant_power_B 0;
constant_power_A 1.36007;
nominal_voltage 120;
};

object load {
phases 1N;
name 62463014757;
parent node62463014628T62463014734;
load_class R;
constant_power_C 0;
constant_power_B 0;
constant_power_A 4.81198;
nominal_voltage 120;
};

object load {
phases 1N;
name 62463013707;
parent node62463013707T62463013737;
load_class R;
constant_power_C 0;
constant_power_B 0;
constant_power_A 3.67901;
nominal_voltage 120;
};

object load {
phases 1N;
name 62463016900;
parent node62463016900T62463016837;
load_class R;
constant_power_C 0;
constant_power_B 0;
constant_power_A 6.36635;
nominal_voltage 120;
};

object load {
phases 1N;
name 62474195011;
parent node62474195011T62474196023;
load_class R;
constant_power_C 0;
constant_power_B 0;
constant_power_A 4.97095;
nominal_voltage 120;
};

object load {
phases 1N;
name 62463016996;
parent node62474195011T62474196023;
load_class R;
constant_power_C 0;
constant_power_B 0;
constant_power_A 7.02242;
nominal_voltage 120;
};

object load {
phases 1N;
name 62474195151;
parent node62474195151T62474196103;
load_class R;
constant_power_C 0;
constant_power_B 0;
constant_power_A 5.79356;
nominal_voltage 120;
};

object load {
phases 1N;
name 62474195268;
parent node62474195268T62474196213;
load_class R;
constant_power_C 0;
constant_power_B 0;
constant_power_A 5.56393;
nominal_voltage 120;
};

object load {
phases 1N;
name 62474195267;
parent node62474195268T62474196213;
load_class R;
constant_power_C 0;
constant_power_B 0;
constant_power_A 0.116073;
nominal_voltage 120;
};

object load {
phases 1N;
name 62474196319;
parent node62474196319T62474196353;
load_class R;
constant_power_C 0;
constant_power_B 0;
constant_power_A 1.63512;
nominal_voltage 120;
};

object load {
phases 1N;
name 62474197334;
parent node62474196319T62474196353;
load_class R;
constant_power_C 0;
constant_power_B 0;
constant_power_A 9.00323;
nominal_voltage 120;
};

object load {
phases 1N;
name 62474197221;
parent node62474197221T62474197215;
load_class R;
constant_power_C 0;
constant_power_B 0;
constant_power_A 3.88592;
nominal_voltage 120;
};

object load {
phases 1N;
name 62474196191;
parent node62474196191T62474197105;
load_class R;
constant_power_C 0;
constant_power_B 0;
constant_power_A 4.27956;
nominal_voltage 120;
};

object load {
phases 1N;
name 62463016539;
parent node62463016539T62463016634;
load_class R;
constant_power_C 0;
constant_power_B 0;
constant_power_A 6.54803;
nominal_voltage 120;
};

object load {
phases 2N;
name 62463018228;
parent node62463018228T62463018249;
load_class R;
constant_power_C 0;
constant_power_B 1.20363;
constant_power_A 0;
nominal_voltage 120;
};

object fuse {
phases 3N;
from nodeF581519816;
name F5815;
current_limit 9999.0 A;
to node19563F5815;
};

object load {
phases 3N;
name 62463019285;
parent node62463019285T62463019253;
load_class R;
constant_power_C 4.53442;
constant_power_B 0;
constant_power_A 0;
nominal_voltage 120;
};

object load {
phases 3N;
name 62463021167;
parent node62463021167T62463021200;
load_class R;
constant_power_C 3.75723;
constant_power_B 0;
constant_power_A 0;
nominal_voltage 120;
};

object load {
phases 2N;
name 62463017062;
parent node62463017062T62463017045;
load_class R;
constant_power_C 0;
constant_power_B 2.3366;
constant_power_A 0;
nominal_voltage 120;
};

object fuse {
phases 1N;
from nodeF758519740;
name F7585;
current_limit 9999.0 A;
to node19714F7585;
};

object load {
phases 1N;
name 62463016038;
parent node62463016038T62463016077;
load_class R;
constant_power_C 0;
constant_power_B 0;
constant_power_A 2.39716;
nominal_voltage 120;
};

object load {
phases 1N;
name 62463074975;
parent node62463074975T62463014050;
load_class R;
constant_power_C 0;
constant_power_B 0;
constant_power_A 3.57051;
nominal_voltage 120;
};

object load {
phases 1N;
name 62463016251;
parent node62463016251T62463016201;
load_class R;
constant_power_C 0;
constant_power_B 0;
constant_power_A 2.66968;
nominal_voltage 120;
};

object load {
phases 1N;
name 62463015244;
parent node62463016251T62463016201;
load_class R;
constant_power_C 0;
constant_power_B 0;
constant_power_A 4.69086;
nominal_voltage 120;
};

object fuse {
phases 7N;
from nodeF758658017;
name F7586;
current_limit 9999.0 A;
to node58021F7586;
};

object load {
phases 7N;
name 62463078953;
parent node62463078953T62463078922;
load_class R;
constant_power_C 3.07258;
constant_power_B 3.07258;
constant_power_A 3.07258;
nominal_voltage 120;
};

object load {
phases 2N;
name 62463076992;
parent node62463076992T62463076899;
load_class R;
constant_power_C 0;
constant_power_B 2.38959;
constant_power_A 0;
nominal_voltage 120;
};

object load {
phases 2N;
name 62463076991;
parent node62463076992T62463076899;
load_class R;
constant_power_C 0;
constant_power_B 0.961387;
constant_power_A 0;
nominal_voltage 120;
};

object load {
phases 2N;
name 62463076869;
parent node62463076992T62463076899;
load_class R;
constant_power_C 0;
constant_power_B 5.06179;
constant_power_A 0;
nominal_voltage 120;
};

object fuse {
phases 1N;
from nodeF758719582;
name F7587;
current_limit 9999.0 A;
to node19196F7587;
};

object load {
phases 1N;
name 62463074798;
parent node62463074798T62463074775;
load_class R;
constant_power_C 0;
constant_power_B 0;
constant_power_A 4.83469;
nominal_voltage 120;
};

object load {
phases 1N;
name 62463074872;
parent node62463074798T62463074775;
load_class R;
constant_power_C 0;
constant_power_B 0;
constant_power_A 0.141306;
nominal_voltage 120;
};

object fuse {
phases 3N;
from nodeF758919344;
name F7589;
current_limit 9999.0 A;
to node19353F7589;
};

object load {
phases 3N;
name 62463074197;
parent node62463074197T62463074165;
load_class R;
constant_power_C 2.69744;
constant_power_B 0;
constant_power_A 0;
nominal_voltage 120;
};

object load {
phases 3N;
name 62463073088;
parent node62463073088T62463074161;
load_class R;
constant_power_C 2.17258;
constant_power_B 0;
constant_power_A 0;
nominal_voltage 120;
};

object load {
phases 3N;
name 62463074161;
parent node62463073088T62463074161;
load_class R;
constant_power_C 0.787278;
constant_power_B 0;
constant_power_A 0;
nominal_voltage 120;
};

object load {
phases 3N;
name 62463079175;
parent node62463079175T62463079127;
load_class R;
constant_power_C 2.91444;
constant_power_B 0;
constant_power_A 0;
nominal_voltage 120;
};

object load {
phases 3N;
name 62463139865;
parent node62463139865T62463139950;
load_class R;
constant_power_C 2.54099;
constant_power_B 0;
constant_power_A 0;
nominal_voltage 120;
};

object load {
phases 3N;
name 62463075194;
parent node62463075194T62463075133;
load_class R;
constant_power_C 4.56722;
constant_power_B 0;
constant_power_A 0;
nominal_voltage 120;
};

object load {
phases 2N;
name 62463133906;
parent node62463133906T62463072031;
load_class R;
constant_power_C 0;
constant_power_B 5.29142;
constant_power_A 0;
nominal_voltage 120;
};

object switch {
status CLOSED;
phases 7N;
from nodeSW1250-Bx170925;
name SW1250-Bx1;
to nodeSW1250-Ax1SW1250-Bx1;
};

object switch {
status CLOSED;
phases 7N;
from nodeSW1250-Ax1SW1250-Bx1;
name SW1250-Ax1;
to node19281SW1250-Ax1;
};

object load {
phases 1N;
name 62463130850;
parent node62463130850T62463130794;
load_class R;
constant_power_C 0;
constant_power_B 0;
constant_power_A 4.71862;
nominal_voltage 120;
};

object load {
phases 2N;
name 62463129089;
parent node62463129089T62463129146;
load_class R;
constant_power_C 0;
constant_power_B 0.782231;
constant_power_A 0;
nominal_voltage 120;
};

object load {
phases 2N;
name 62463129140;
parent node62463129089T62463129146;
load_class R;
constant_power_C 0;
constant_power_B 0.0908397;
constant_power_A 0;
nominal_voltage 120;
};

object load {
phases 2N;
name 62463129029;
parent node62463129089T62463129146;
load_class R;
constant_power_C 0;
constant_power_B 0;
constant_power_A 0;
nominal_voltage 120;
};

object fuse {
phases 1N;
from nodeF824519095;
name F8245;
current_limit 9999.0 A;
to node19103F8245;
};

object load {
phases 1N;
name 62463132202;
parent node62463132202T62463131250;
load_class R;
constant_power_C 0;
constant_power_B 0;
constant_power_A 3.78751;
nominal_voltage 120;
};

object load {
phases 1N;
name 62463133761;
parent node62463133761T62463133761;
load_class R;
constant_power_C 0;
constant_power_B 0;
constant_power_A 0;
nominal_voltage 120;
};

object load {
phases 1N;
name 62463134548;
parent node62463134548T62463134578;
load_class R;
constant_power_C 0;
constant_power_B 0;
constant_power_A 2.83622;
nominal_voltage 120;
};

object load {
phases 1N;
name 62463135417;
parent node62463134548T62463134578;
load_class R;
constant_power_C 0;
constant_power_B 0;
constant_power_A 0.0353266;
nominal_voltage 120;
};

object load {
phases 1N;
name 62463132895;
parent node62463132895T62463133818;
load_class R;
constant_power_C 0;
constant_power_B 0;
constant_power_A 5.18796;
nominal_voltage 120;
};

object load {
phases 1N;
name 62463132482;
parent node62463132482T62463132499;
load_class R;
constant_power_C 0;
constant_power_B 0;
constant_power_A 5.81879;
nominal_voltage 120;
};

object load {
phases 1N;
name 62463133009;
parent node62463133009T62463132037;
load_class R;
constant_power_C 0;
constant_power_B 0;
constant_power_A 2.64445;
nominal_voltage 120;
};

object fuse {
phases 1N;
from nodeF500719048;
name F5007;
current_limit 9999.0 A;
to node19049F5007;
};

object load {
phases 1N;
name 62463188749;
parent node62463188749T62463188832;
load_class R;
constant_power_C 0;
constant_power_B 0;
constant_power_A 0;
nominal_voltage 120;
};

object load {
phases 1N;
name 62463188841;
parent node62463188749T62463188832;
load_class R;
constant_power_C 0;
constant_power_B 0;
constant_power_A 3.36864;
nominal_voltage 120;
};

object load {
phases 1N;
name 62463190800;
parent node62463190800T62463189781;
load_class R;
constant_power_C 0;
constant_power_B 0;
constant_power_A 2.62426;
nominal_voltage 120;
};

object load {
phases 1N;
name 62463190694;
parent node62463190694T62463190598;
load_class R;
constant_power_C 0;
constant_power_B 0;
constant_power_A 0.0807464;
nominal_voltage 120;
};

object load {
phases 1N;
name 62463193561;
parent node62463193561T62463193504;
load_class R;
constant_power_C 0;
constant_power_B 0;
constant_power_A 8.12006;
nominal_voltage 120;
};

object load {
phases 1N;
name 62463188901;
parent node62463188901T62463187888;
load_class R;
constant_power_C 0;
constant_power_B 0;
constant_power_A 6.57074;
nominal_voltage 120;
};

object load {
phases 1N;
name 62463186718;
parent node62463186718T62463186742;
load_class R;
constant_power_C 0;
constant_power_B 0;
constant_power_A 0;
nominal_voltage 120;
};

object load {
phases 1N;
name 62463186767;
parent node62463186718T62463186742;
load_class R;
constant_power_C 0;
constant_power_B 0;
constant_power_A 1.69063;
nominal_voltage 120;
};

object load {
phases 1N;
name 62463186398;
parent node62463186398T62463185453;
load_class R;
constant_power_C 0;
constant_power_B 0;
constant_power_A 1.14307;
nominal_voltage 120;
};

object load {
phases 1N;
name 62463186406;
parent node62463186398T62463185453;
load_class R;
constant_power_C 0;
constant_power_B 0;
constant_power_A 5.04918;
nominal_voltage 120;
};

object load {
phases 1N;
name 62463185287;
parent node62463185287T62463186324;
load_class R;
constant_power_C 0;
constant_power_B 0;
constant_power_A 6.71962;
nominal_voltage 120;
};

object load {
phases 1N;
name 62463186691;
parent node62463186691T62463186577;
load_class R;
constant_power_C 0;
constant_power_B 0;
constant_power_A 4.54451;
nominal_voltage 120;
};

object load {
phases 1N;
name 62463189387;
parent node62463189387T62463189482;
load_class R;
constant_power_C 0;
constant_power_B 0;
constant_power_A 2.96491;
nominal_voltage 120;
};

object load {
phases 1N;
name 62463128092;
parent node62463128092T62463188978;
load_class R;
constant_power_C 0;
constant_power_B 0;
constant_power_A 4.74133;
nominal_voltage 120;
};

object fuse {
phases 1N;
from nodeF759118823;
name F7591;
current_limit 9999.0 A;
to node18675F7591;
};

object load {
phases 1N;
name 62463124065;
parent node62463124065T62463124087;
load_class R;
constant_power_C 0;
constant_power_B 0;
constant_power_A 1.70577;
nominal_voltage 120;
};

object load {
phases 2N;
name 62463123162;
parent node62463123162T62463123126;
load_class R;
constant_power_C 0;
constant_power_B 1.49633;
constant_power_A 0;
nominal_voltage 120;
};

object load {
phases 2N;
name 62463123039;
parent node62463123162T62463123126;
load_class R;
constant_power_C 0;
constant_power_B 2.58641;
constant_power_A 0;
nominal_voltage 120;
};

object load {
phases 3N;
name 62463121169;
parent node62463121169T62463121197;
load_class R;
constant_power_C 3.5049;
constant_power_B 0;
constant_power_A 0;
nominal_voltage 120;
};

object load {
phases 1N;
name 62462178343;
parent node62462178343T62462178321;
load_class R;
constant_power_C 0;
constant_power_B 0;
constant_power_A 6.34364;
nominal_voltage 120;
};

object fuse {
phases 3N;
from nodeF759818094;
name F7598;
current_limit 9999.0 A;
to node17654F7598;
};

object load {
phases 3N;
name 62462238928;
parent node62462238928T62462237996;
load_class R;
constant_power_C 3.11126;
constant_power_B 0;
constant_power_A 0;
nominal_voltage 120;
};

object load {
phases 3N;
name 62462238910;
parent node62462238928T62462237996;
load_class R;
constant_power_C 0.507189;
constant_power_B 0;
constant_power_A 0;
nominal_voltage 120;
};

object load {
phases 3N;
name 62462237962;
parent node62462237962T62462237964;
load_class R;
constant_power_C 0.0454199;
constant_power_B 0;
constant_power_A 0;
nominal_voltage 120;
};

object load {
phases 3N;
name 62462236984;
parent node62462236984T62462236981;
load_class R;
constant_power_C 3.05322;
constant_power_B 0;
constant_power_A 0;
nominal_voltage 120;
};

object fuse {
phases 7N;
from nodeR120168062;
name R1201;
current_limit 9999.0 A;
to node68063R1201;
};

object fuse {
phases 7N;
from nodeF518757854;
name F5187;
current_limit 9999.0 A;
to node57850F5187;
};

object load {
phases 1N;
name 62463000348;
parent node62463000348T62463000400;
load_class R;
constant_power_C 0;
constant_power_B 0;
constant_power_A 0;
nominal_voltage 120;
};

object load {
phases 1N;
name 62462059368;
parent node62463000348T62463000400;
load_class R;
constant_power_C 0;
constant_power_B 0;
constant_power_A 2.32651;
nominal_voltage 120;
};

object load {
phases 1N;
name 62462059542;
parent node62462059542T62463000511;
load_class R;
constant_power_C 0;
constant_power_B 0;
constant_power_A 6.47233;
nominal_voltage 120;
};

object load {
phases 1N;
name 62462059675;
parent node62462059675T62463000610;
load_class R;
constant_power_C 0;
constant_power_B 0;
constant_power_A 0;
nominal_voltage 120;
};

object load {
phases 1N;
name 62462059694;
parent node62462059675T62463000610;
load_class R;
constant_power_C 0;
constant_power_B 0;
constant_power_A 0;
nominal_voltage 120;
};

object load {
phases 1N;
name 62462059538;
parent node62462059675T62463000610;
load_class R;
constant_power_C 0;
constant_power_B 0;
constant_power_A 2.09436;
nominal_voltage 120;
};

object load {
phases 1N;
name 62463001627;
parent node62463001627T62463000688;
load_class R;
constant_power_C 0;
constant_power_B 0;
constant_power_A 1.01438;
nominal_voltage 120;
};

object load {
phases 1N;
name 62462059793;
parent node62462059793T62462059787;
load_class R;
constant_power_C 0;
constant_power_B 0;
constant_power_A 0;
nominal_voltage 120;
};

object load {
phases 2N;
name 62462059308;
parent node62462059308T62462058491;
load_class R;
constant_power_C 0;
constant_power_B 1.44839;
constant_power_A 0;
nominal_voltage 120;
};

object fuse {
phases 7N;
from nodeF716757851;
name F7167;
current_limit 9999.0 A;
to node57808F7167;
};

object switch {
status CLOSED;
phases 7N;
from nodeSW1064-Bx157856;
name SW1064-Bx1;
to nodeSW1064-Ax1SW1064-Bx1;
};

object switch {
status CLOSED;
phases 7N;
from nodeSW1064-Ax1SW1064-Bx1;
name SW1064-Ax1;
to node57855SW1064-Ax1;
};

object fuse {
phases 7N;
from nodeF617157810;
name F6171;
current_limit 9999.0 A;
to node57811F6171;
};

object load {
phases 2N;
name 62474182051;
parent node62474182051T62463002948;
load_class R;
constant_power_C 0;
constant_power_B 2.34165;
constant_power_A 0;
nominal_voltage 120;
};

object load {
phases 2N;
name 62474182023;
parent node62474182051T62463002948;
load_class R;
constant_power_C 0;
constant_power_B 2.02371;
constant_power_A 0;
nominal_voltage 120;
};

object load {
phases 2N;
name 62474182070;
parent node62474182051T62463002948;
load_class R;
constant_power_C 0;
constant_power_B 0.921014;
constant_power_A 0;
nominal_voltage 120;
};

object load {
phases 3N;
name 62474181058;
parent node62474181058T62474181036;
load_class R;
constant_power_C 2.71005;
constant_power_B 0;
constant_power_A 0;
nominal_voltage 120;
};

object load {
phases 3N;
name 62474181087;
parent node62474181058T62474181036;
load_class R;
constant_power_C 1.7638;
constant_power_B 0;
constant_power_A 0;
nominal_voltage 120;
};

object load {
phases 3N;
name 62474181049;
parent node62474181058T62474181036;
load_class R;
constant_power_C 3.54527;
constant_power_B 0;
constant_power_A 0;
nominal_voltage 120;
};

object load {
phases 3N;
name 62463000855;
parent node62463000855T62463000829;
load_class R;
constant_power_C 0;
constant_power_B 0;
constant_power_A 0;
nominal_voltage 120;
};

object load {
phases 3N;
name 62463001804;
parent node62463001804T62463001814;
load_class R;
constant_power_C 0;
constant_power_B 0;
constant_power_A 0;
nominal_voltage 120;
};

object load {
phases 3N;
name 62463001887;
parent node62463001804T62463001814;
load_class R;
constant_power_C 1.94296;
constant_power_B 0;
constant_power_A 0;
nominal_voltage 120;
};

object load {
phases 3N;
name 62463000882;
parent node62463001804T62463001814;
load_class R;
constant_power_C 3.00528;
constant_power_B 0;
constant_power_A 0;
nominal_voltage 120;
};

object load {
phases 3N;
name 62463001801;
parent node62463001804T62463001814;
load_class R;
constant_power_C 2.3694;
constant_power_B 0;
constant_power_A 0;
nominal_voltage 120;
};

object load {
phases 3N;
name 62463001766;
parent node62463001766T62463001769;
load_class R;
constant_power_C 1.76885;
constant_power_B 0;
constant_power_A 0;
nominal_voltage 120;
};

object load {
phases 3N;
name 62463001747;
parent node62463001766T62463001769;
load_class R;
constant_power_C 1.83698;
constant_power_B 0;
constant_power_A 0;
nominal_voltage 120;
};

object load {
phases 1N;
name 62473239194;
parent node62473239194T62474180122;
load_class R;
constant_power_C 0;
constant_power_B 0;
constant_power_A 2.31137;
nominal_voltage 120;
};

object load {
phases 1N;
name 62474180125;
parent node62473239194T62474180122;
load_class R;
constant_power_C 0;
constant_power_B 0;
constant_power_A 7.44886;
nominal_voltage 120;
};

object load {
phases 2N;
name 62473238040;
parent node62473238040T62473238073;
load_class R;
constant_power_C 0;
constant_power_B 0;
constant_power_A 0;
nominal_voltage 120;
};

object load {
phases 2N;
name 62473238011;
parent node62473238040T62473238073;
load_class R;
constant_power_C 0;
constant_power_B 3.13902;
constant_power_A 0;
nominal_voltage 120;
};

object load {
phases 2N;
name 62473238221;
parent node62473238221T62473238126;
load_class R;
constant_power_C 0;
constant_power_B 0;
constant_power_A 0;
nominal_voltage 120;
};

object load {
phases 2N;
name 62473238255;
parent node62473238255T62473238283;
load_class R;
constant_power_C 0;
constant_power_B 3.89097;
constant_power_A 0;
nominal_voltage 120;
};

object load {
phases 1N;
name 62462058915;
parent node62462058915T62462058961;
load_class R;
constant_power_C 0;
constant_power_B 0;
constant_power_A 1.81175;
nominal_voltage 120;
};

object load {
phases 2N;
name 62462058744;
parent node62462058744T62462058764;
load_class R;
constant_power_C 0;
constant_power_B 0;
constant_power_A 0;
nominal_voltage 120;
};

object load {
phases 2N;
name 62462058715;
parent node62462058744T62462058764;
load_class R;
constant_power_C 0;
constant_power_B 1.97829;
constant_power_A 0;
nominal_voltage 120;
};

object load {
phases 1N;
name 62462057655;
parent node62462057655T62462057695;
load_class R;
constant_power_C 0;
constant_power_B 0;
constant_power_A 2.59146;
nominal_voltage 120;
};

object load {
phases 3N;
name 62462058558;
parent node62462058558T62462057585;
load_class R;
constant_power_C 3.29042;
constant_power_B 0;
constant_power_A 0;
nominal_voltage 120;
};

object load {
phases 3N;
name 62462058536;
parent node62462058558T62462057585;
load_class R;
constant_power_C 2.37445;
constant_power_B 0;
constant_power_A 0;
nominal_voltage 120;
};

object load {
phases 2N;
name 62462057439;
parent node62462057439T62462057478;
load_class R;
constant_power_C 0;
constant_power_B 0.958864;
constant_power_A 0;
nominal_voltage 120;
};

object load {
phases 2N;
name 62462057437;
parent node62462057439T62462057478;
load_class R;
constant_power_C 0;
constant_power_B 1.87231;
constant_power_A 0;
nominal_voltage 120;
};

object load {
phases 3N;
name 62462057863;
parent node62462057863T62462058873;
load_class R;
constant_power_C 1.98838;
constant_power_B 0;
constant_power_A 0;
nominal_voltage 120;
};

object load {
phases 3N;
name 62473239131;
parent node62473239131T62473239069;
load_class R;
constant_power_C 4.28208;
constant_power_B 0;
constant_power_A 0;
nominal_voltage 120;
};

object load {
phases 1N;
name 62463002869;
parent node62463002869T62463003904;
load_class R;
constant_power_C 0;
constant_power_B 0;
constant_power_A 1.17839;
nominal_voltage 120;
};

object load {
phases 1N;
name 62463002888;
parent node62463002869T62463003904;
load_class R;
constant_power_C 0;
constant_power_B 0;
constant_power_A 7.40092;
nominal_voltage 120;
};

object load {
phases 1N;
name 62463003936;
parent node62463002869T62463003904;
load_class R;
constant_power_C 0;
constant_power_B 0;
constant_power_A 2.71258;
nominal_voltage 120;
};

object switch {
status CLOSED;
phases 7N;
from nodeSW1139-Bx157809;
name SW1139-Bx1;
to nodeSW1139-Ax1SW1139-Bx1;
};

object switch {
status CLOSED;
phases 7N;
from nodeSW1139-Ax1SW1139-Bx1;
name SW1139-Ax1;
to node57864SW1139-Ax1;
};

object switch {
status CLOSED;
phases 7N;
from nodeSW1420-Bx157877;
name SW1420-Bx1;
to nodeSW1420-Ax1SW1420-Bx1;
};

object switch {
status CLOSED;
phases 7N;
from nodeSW1420-Ax1SW1420-Bx1;
name SW1420-Ax1;
to node57818SW1420-Ax1;
};

object fuse {
phases 1N;
from nodeF653757878;
name F6537;
current_limit 9999.0 A;
to node57866F6537;
};

object load {
phases 1N;
name 62474182499;
parent node62474182499T62474182459;
load_class R;
constant_power_C 0;
constant_power_B 0;
constant_power_A 0;
nominal_voltage 120;
};

object load {
phases 1N;
name 62474182422;
parent node62474182499T62474182459;
load_class R;
constant_power_C 0;
constant_power_B 0;
constant_power_A 1.81175;
nominal_voltage 120;
};

object load {
phases 1N;
name 62474182452;
parent node62474182499T62474182459;
load_class R;
constant_power_C 0;
constant_power_B 0;
constant_power_A 2.0338;
nominal_voltage 120;
};

object load {
phases 1N;
name 62474181469;
parent node62474181469T62474181497;
load_class R;
constant_power_C 0;
constant_power_B 0;
constant_power_A 2.24071;
nominal_voltage 120;
};

object load {
phases 1N;
name 62474181379;
parent node62474181379T62474181443;
load_class R;
constant_power_C 0;
constant_power_B 0;
constant_power_A 3.10621;
nominal_voltage 120;
};

object load {
phases 1N;
name 62474181480;
parent node62474181379T62474181443;
load_class R;
constant_power_C 0;
constant_power_B 0;
constant_power_A 2.09688;
nominal_voltage 120;
};

object load {
phases 1N;
name 62474181436;
parent node62474181379T62474181443;
load_class R;
constant_power_C 0;
constant_power_B 0;
constant_power_A 3.2021;
nominal_voltage 120;
};

object load {
phases 1N;
name 62474181415;
parent node62474181379T62474181443;
load_class R;
constant_power_C 0;
constant_power_B 0;
constant_power_A 2.74538;
nominal_voltage 120;
};

object load {
phases 1N;
name 62474181335;
parent node62474181335T62474180389;
load_class R;
constant_power_C 0;
constant_power_B 0;
constant_power_A 2.65202;
nominal_voltage 120;
};

object load {
phases 1N;
name 62474180472;
parent node62474181335T62474180389;
load_class R;
constant_power_C 0;
constant_power_B 0;
constant_power_A 2.50566;
nominal_voltage 120;
};

object load {
phases 1N;
name 62474181313;
parent node62474181335T62474180389;
load_class R;
constant_power_C 0;
constant_power_B 0;
constant_power_A 2.10193;
nominal_voltage 120;
};

object load {
phases 1N;
name 62474180317;
parent node62474180317T62474180356;
load_class R;
constant_power_C 0;
constant_power_B 0;
constant_power_A 2.41987;
nominal_voltage 120;
};

object load {
phases 2N;
name 62474181623;
parent node62474181623T62474181695;
load_class R;
constant_power_C 0;
constant_power_B 6.40925;
constant_power_A 0;
nominal_voltage 120;
};

object fuse {
phases 1N;
from nodeF742317888;
name F7423;
current_limit 9999.0 A;
to node18410F7423;
};

object load {
phases 1N;
name 62474182629;
parent node62474182629T62474182678;
load_class R;
constant_power_C 0;
constant_power_B 0;
constant_power_A 2.38959;
nominal_voltage 120;
};

object load {
phases 1N;
name 62462172377;
parent node62462172377T62462172490;
load_class R;
constant_power_C 0;
constant_power_B 0;
constant_power_A 5.02786;
nominal_voltage 120;
};

object load {
phases 2N;
name 62462172359;
parent node62462172359T62462172379;
load_class R;
constant_power_C 0;
constant_power_B 4.7817;
constant_power_A 0;
nominal_voltage 120;
};

object fuse {
phases 7N;
from nodeR120268064;
name R1202;
current_limit 9999.0 A;
to node68065R1202;
};

object fuse {
phases 1N;
from nodeF526917127;
name F5269;
current_limit 9999.0 A;
to node17134F5269;
};

object load {
phases 1N;
name 62462169230;
parent node62462169230T62462169245;
load_class R;
constant_power_C 0;
constant_power_B 0;
constant_power_A 6.15439;
nominal_voltage 120;
};

object load {
phases 3N;
name 62462168493;
parent node62462168493T62462169442;
load_class R;
constant_power_C 4.7489;
constant_power_B 0;
constant_power_A 0;
nominal_voltage 120;
};

object load {
phases 2N;
name 62462163909;
parent node62462163909T62462162948;
load_class R;
constant_power_C 0;
constant_power_B 0;
constant_power_A 0;
nominal_voltage 120;
};

object load {
phases 2N;
name 62462102070;
parent node62462163909T62462162948;
load_class R;
constant_power_C 0;
constant_power_B 0;
constant_power_A 0;
nominal_voltage 120;
};

object fuse {
phases 7N;
from nodeF555268161;
name F5552;
current_limit 9999.0 A;
to node15042F5552;
};

object load {
phases 7N;
name 62462091125;
parent node62462091125T62462091135;
load_class R;
constant_power_C 32.759;
constant_power_B 32.759;
constant_power_A 32.759;
nominal_voltage 120;
};

object switch {
status CLOSED;
phases 7N;
from nodeSW1039-Bx115048;
name SW1039-Bx1;
to nodeSW1039-Ax1SW1039-Bx1;
};

object switch {
status CLOSED;
phases 7N;
from nodeSW1039-Ax1SW1039-Bx1;
name SW1039-Ax1;
to node15051SW1039-Ax1;
};

object fuse {
phases 7N;
from nodeF559357731;
name F5593;
current_limit 9999.0 A;
to node57738F5593;
};

object fuse {
phases 2N;
from nodeF751416237;
name F7514;
current_limit 9999.0 A;
to node16229F7514;
};

object load {
phases 2N;
name 62462101209;
parent node62462101209T62462101267;
load_class R;
constant_power_C 0;
constant_power_B 4.976;
constant_power_A 0;
nominal_voltage 120;
};

object load {
phases 2N;
name 62462100205;
parent node62462100205T62462100224;
load_class R;
constant_power_C 0;
constant_power_B 6.65906;
constant_power_A 0;
nominal_voltage 120;
};

object load {
phases 2N;
name 62462100389;
parent node62462100389T62462101338;
load_class R;
constant_power_C 0;
constant_power_B 6.25028;
constant_power_A 0;
nominal_voltage 120;
};

object fuse {
phases 2N;
from nodeF751657760;
name F7516;
current_limit 9999.0 A;
to node57765F7516;
};

object load {
phases 2N;
name 62462166430;
parent node62462166430T62462166454;
load_class R;
constant_power_C 0;
constant_power_B 5.3444;
constant_power_A 0;
nominal_voltage 120;
};

object fuse {
phases 3N;
from nodeF751716490;
name F7517;
current_limit 9999.0 A;
to node17035F7517;
};

object load {
phases 3N;
name 62462169487;
parent node62462169487T62462169469;
load_class R;
constant_power_C 4.26442;
constant_power_B 0;
constant_power_A 0;
nominal_voltage 120;
};

object load {
phases 3N;
name 62462169591;
parent node62462169487T62462169469;
load_class R;
constant_power_C 0.15897;
constant_power_B 0;
constant_power_A 0;
nominal_voltage 120;
};

object load {
phases 3N;
name 62462170679;
parent node62462170679T62462170743;
load_class R;
constant_power_C 4.38554;
constant_power_B 0;
constant_power_A 0;
nominal_voltage 120;
};

object fuse {
phases 3N;
from nodeF751557761;
name F7515;
current_limit 9999.0 A;
to node57781F7515;
};

object load {
phases 3N;
name 62462110050;
parent node62462110050T62462110060;
load_class R;
constant_power_C 3.41658;
constant_power_B 0;
constant_power_A 0;
nominal_voltage 120;
};

object load {
phases 3N;
name 62462110074;
parent node62462110050T62462110060;
load_class R;
constant_power_C 5.44534;
constant_power_B 0;
constant_power_A 0;
nominal_voltage 120;
};

object load {
phases 3N;
name 62462168810;
parent node62462168810T62462168870;
load_class R;
constant_power_C 3.57808;
constant_power_B 0;
constant_power_A 0;
nominal_voltage 120;
};

object load {
phases 3N;
name 62462168853;
parent node62462168810T62462168870;
load_class R;
constant_power_C 0.0277566;
constant_power_B 0;
constant_power_A 0;
nominal_voltage 120;
};

object capacitor {
control VOLT;
phases 7N;
name CAP134;
parent node7055970558;
capacitor_B 0.10 MVAr;
capacitor_C 0.10 MVAr;
capacitor_A 0.10 MVAr;
time_delay 300.0;
pt_phase ABCN;
nominal_voltage 2401.7771;
voltage_set_low 2340.0;
switchC CLOSED;
control_level INDIVIDUAL;
switchA CLOSED;
switchB CLOSED;
phases_connected ABCN;
dwell_time 0.0;
voltage_set_high 2350.0;
};

object load {
phases 7N;
name 62462173273;
parent node62462173273T62462173272;
load_class R;
constant_power_C 14.8043;
constant_power_B 14.8043;
constant_power_A 14.8043;
nominal_voltage 120;
};

object switch {
status CLOSED;
phases 7N;
from nodeSW1421-Bx117095;
name SW1421-Bx1;
to nodeSW1421-Ax1SW1421-Bx1;
};

object switch {
status CLOSED;
phases 7N;
from nodeSW1421-Ax1SW1421-Bx1;
name SW1421-Ax1;
to node17091SW1421-Ax1;
};

object fuse {
phases 7N;
from nodeF564057769;
name F5640;
current_limit 9999.0 A;
to node57768F5640;
};

object fuse {
phases 3N;
from nodeR120367782;
name R1203;
current_limit 9999.0 A;
to node67783R1203;
};

object load {
phases 3N;
name 62462223811;
parent node62462223811T62462223734;
load_class R;
constant_power_C 0.103456;
constant_power_B 0;
constant_power_A 0;
nominal_voltage 120;
};

object load {
phases 3N;
name 62462221747;
parent node62462221747T62462222618;
load_class R;
constant_power_C 0.116073;
constant_power_B 0;
constant_power_A 0;
nominal_voltage 120;
};

object fuse {
phases 3N;
from nodeF888516222;
name F8885;
current_limit 9999.0 A;
to node16223F8885;
};

object load {
phases 3N;
name 62462222990;
parent node62462222990T62462222900;
load_class R;
constant_power_C 0;
constant_power_B 0;
constant_power_A 0;
nominal_voltage 120;
};

object load {
phases 3N;
name 62462222906;
parent node62462222990T62462222900;
load_class R;
constant_power_C 0.111026;
constant_power_B 0;
constant_power_A 0;
nominal_voltage 120;
};

object load {
phases 3N;
name 62462222928;
parent node62462222990T62462222900;
load_class R;
constant_power_C 0.234669;
constant_power_B 0;
constant_power_A 0;
nominal_voltage 120;
};

object load {
phases 3N;
name 62462222940;
parent node62462222990T62462222900;
load_class R;
constant_power_C 1.37017;
constant_power_B 0;
constant_power_A 0;
nominal_voltage 120;
};

object load {
phases 3N;
name 62462221940;
parent node62462222990T62462222900;
load_class R;
constant_power_C 0.11355;
constant_power_B 0;
constant_power_A 0;
nominal_voltage 120;
};

object load {
phases 3N;
name 62462222991;
parent node62462222990T62462222900;
load_class R;
constant_power_C 0.227099;
constant_power_B 0;
constant_power_A 0;
nominal_voltage 120;
};

object load {
phases 3N;
name 62462222898;
parent node62462222990T62462222900;
load_class R;
constant_power_C 0.0706531;
constant_power_B 0;
constant_power_A 0;
nominal_voltage 120;
};

object load {
phases 3N;
name 62462161131;
parent node62462161131T62462161089;
load_class R;
constant_power_C 0.0479432;
constant_power_B 0;
constant_power_A 0;
nominal_voltage 120;
};

object load {
phases 3N;
name 62462161064;
parent node62462161131T62462161089;
load_class R;
constant_power_C 0.0883164;
constant_power_B 0;
constant_power_A 0;
nominal_voltage 120;
};

object load {
phases 3N;
name 62462161074;
parent node62462161131T62462161089;
load_class R;
constant_power_C 0.0782231;
constant_power_B 0;
constant_power_A 0;
nominal_voltage 120;
};

object load {
phases 3N;
name 62462161015;
parent node62462161131T62462161089;
load_class R;
constant_power_C 0.0479432;
constant_power_B 0;
constant_power_A 0;
nominal_voltage 120;
};

object load {
phases 3N;
name 62462161141;
parent node62462161131T62462161089;
load_class R;
constant_power_C 0.0958864;
constant_power_B 0;
constant_power_A 0;
nominal_voltage 120;
};

object load {
phases 3N;
name 62462221928;
parent node62462221928T62462221998;
load_class R;
constant_power_C 0.0580365;
constant_power_B 0;
constant_power_A 0;
nominal_voltage 120;
};

object load {
phases 3N;
name 62462219692;
parent node62462219692T62462220516;
load_class R;
constant_power_C 3.97929;
constant_power_B 0;
constant_power_A 0;
nominal_voltage 120;
};

object load {
phases 3N;
name 62462219587;
parent node62462219692T62462220516;
load_class R;
constant_power_C 7.46905;
constant_power_B 0;
constant_power_A 0;
nominal_voltage 120;
};

object load {
phases 3N;
name 62462219593;
parent node62462219692T62462220516;
load_class R;
constant_power_C 0;
constant_power_B 0;
constant_power_A 0;
nominal_voltage 120;
};

object load {
phases 3N;
name 62462220524;
parent node62462219692T62462220516;
load_class R;
constant_power_C 0.01514;
constant_power_B 0;
constant_power_A 0;
nominal_voltage 120;
};

object load {
phases 3N;
name 62462219940;
parent node62462219940T62462219856;
load_class R;
constant_power_C 0.00504665;
constant_power_B 0;
constant_power_A 0;
nominal_voltage 120;
};

object load {
phases 3N;
name 62462219723;
parent node62462219940T62462219856;
load_class R;
constant_power_C 0.0605598;
constant_power_B 0;
constant_power_A 0;
nominal_voltage 120;
};

object load {
phases 3N;
name 62462217843;
parent node62462219940T62462219856;
load_class R;
constant_power_C 0.244763;
constant_power_B 0;
constant_power_A 0;
nominal_voltage 120;
};

object load {
phases 3N;
name 62462158002;
parent node62462219940T62462219856;
load_class R;
constant_power_C 0.0731765;
constant_power_B 0;
constant_power_A 0;
nominal_voltage 120;
};

object load {
phases 3N;
name 62462157070;
parent node62462219940T62462219856;
load_class R;
constant_power_C 0;
constant_power_B 0;
constant_power_A 0;
nominal_voltage 120;
};

object load {
phases 3N;
name 62462157141;
parent node62462157141T62462156117;
load_class R;
constant_power_C 0;
constant_power_B 0;
constant_power_A 0;
nominal_voltage 120;
};

object load {
phases 3N;
name 62462155030;
parent node62462157141T62462156117;
load_class R;
constant_power_C 0.100933;
constant_power_B 0;
constant_power_A 0;
nominal_voltage 120;
};

object load {
phases 3N;
name 62462154072;
parent node62462157141T62462156117;
load_class R;
constant_power_C 0.13626;
constant_power_B 0;
constant_power_A 0;
nominal_voltage 120;
};

object load {
phases 3N;
name 62462156170;
parent node62462157141T62462156117;
load_class R;
constant_power_C 0.196819;
constant_power_B 0;
constant_power_A 0;
nominal_voltage 120;
};

object load {
phases 3N;
name 62462156240;
parent node62462157141T62462156117;
load_class R;
constant_power_C 0.100933;
constant_power_B 0;
constant_power_A 0;
nominal_voltage 120;
};

object load {
phases 3N;
name 62462154130;
parent node62462157141T62462156117;
load_class R;
constant_power_C 0.0328032;
constant_power_B 0;
constant_power_A 0;
nominal_voltage 120;
};

object load {
phases 3N;
name 62462153231;
parent node62462157141T62462156117;
load_class R;
constant_power_C 1.52914;
constant_power_B 0;
constant_power_A 0;
nominal_voltage 120;
};

object load {
phases 3N;
name 62462215977;
parent node62462157141T62462156117;
load_class R;
constant_power_C 0.0403732;
constant_power_B 0;
constant_power_A 0;
nominal_voltage 120;
};

object load {
phases 3N;
name 62462225969;
parent node62462225969T62462166024;
load_class R;
constant_power_C 5.44029;
constant_power_B 0;
constant_power_A 0;
nominal_voltage 120;
};

object load {
phases 3N;
name 62462174083;
parent node62462174083T62462174081;
load_class R;
constant_power_C 1.14307;
constant_power_B 0;
constant_power_A 0;
nominal_voltage 120;
};

object load {
phases 3N;
name 62462175009;
parent node62462174083T62462174081;
load_class R;
constant_power_C 2.40725;
constant_power_B 0;
constant_power_A 0;
nominal_voltage 120;
};

object load {
phases 3N;
name 62462234942;
parent node62462234942T62462233960;
load_class R;
constant_power_C 2.49809;
constant_power_B 0;
constant_power_A 0;
nominal_voltage 120;
};

object load {
phases 3N;
name 62462234833;
parent node62462234942T62462233960;
load_class R;
constant_power_C 1.38026;
constant_power_B 0;
constant_power_A 0;
nominal_voltage 120;
};

object load {
phases 3N;
name 62462232961;
parent node62462232961T62462233819;
load_class R;
constant_power_C 0.905874;
constant_power_B 0;
constant_power_A 0;
nominal_voltage 120;
};

object load {
phases 3N;
name 62462231679;
parent node62462231679T62462231679;
load_class R;
constant_power_C 0.116073;
constant_power_B 0;
constant_power_A 0;
nominal_voltage 120;
};

object load {
phases 3N;
name 62462231782;
parent node62462231679T62462231679;
load_class R;
constant_power_C 2.09688;
constant_power_B 0;
constant_power_A 0;
nominal_voltage 120;
};

object load {
phases 3N;
name 62462231529;
parent node62462231529T62462231545;
load_class R;
constant_power_C 5.85412;
constant_power_B 0;
constant_power_A 0;
nominal_voltage 120;
};

object load {
phases 3N;
name 62462229732;
parent node62462229732T62462229741;
load_class R;
constant_power_C 3.21976;
constant_power_B 0;
constant_power_A 0;
nominal_voltage 120;
};

object load {
phases 3N;
name 62462229510;
parent node62462229510T62462229436;
load_class R;
constant_power_C 1.6225;
constant_power_B 0;
constant_power_A 0;
nominal_voltage 120;
};

object load {
phases 3N;
name 62462229319;
parent node62462229319T62462228465;
load_class R;
constant_power_C 5.66234;
constant_power_B 0;
constant_power_A 0;
nominal_voltage 120;
};

object load {
phases 3N;
name 62462226475;
parent node62462226475T62462227457;
load_class R;
constant_power_C 4.9003;
constant_power_B 0;
constant_power_A 0;
nominal_voltage 120;
};

object load {
phases 3N;
name 62462226602;
parent node62462226602T62462226538;
load_class R;
constant_power_C 7.85764;
constant_power_B 0;
constant_power_A 0;
nominal_voltage 120;
};

object load {
phases 3N;
name 62462225428;
parent node62462225428T62462224580;
load_class R;
constant_power_C 8.61211;
constant_power_B 0;
constant_power_A 0;
nominal_voltage 120;
};

object load {
phases 3N;
name 62462227630;
parent node62462227630T62462227535;
load_class R;
constant_power_C 6.90634;
constant_power_B 0;
constant_power_A 0;
nominal_voltage 120;
};

object load {
phases 3N;
name 62462231414;
parent node62462231414T62462230473;
load_class R;
constant_power_C 5.31917;
constant_power_B 0;
constant_power_A 0;
nominal_voltage 120;
};

object load {
phases 3N;
name 62462232691;
parent node62462232691T62462232564;
load_class R;
constant_power_C 2.46781;
constant_power_B 0;
constant_power_A 0;
nominal_voltage 120;
};

object load {
phases 3N;
name 62462235664;
parent node62462235664T62462235631;
load_class R;
constant_power_C 8.1024;
constant_power_B 0;
constant_power_A 0;
nominal_voltage 120;
};

object fuse {
phases 1N;
from nodeF759318222;
name F7593;
current_limit 9999.0 A;
to node18203F7593;
};

object load {
phases 1N;
name 62462239978;
parent node62462239978T62463120010;
load_class R;
constant_power_C 0;
constant_power_B 0;
constant_power_A 2.65706;
nominal_voltage 120;
};

object fuse {
phases 1N;
from nodeF759019083;
name F7590;
current_limit 9999.0 A;
to node19043F7590;
};

object fuse {
phases 1N;
from nodeF758818569;
name F7588;
current_limit 9999.0 A;
to node19396F7588;
};

object load {
phases 1N;
name 62463072245;
parent node62463072245T62463072330;
load_class R;
constant_power_C 0;
constant_power_B 0;
constant_power_A 3.28789;
nominal_voltage 120;
};

object fuse {
phases 3N;
from nodeF504719503;
name F5047;
current_limit 9999.0 A;
to node19502F5047;
};

object load {
phases 3N;
name 62463075332;
parent node62463075332T62463075357;
load_class R;
constant_power_C 4.59245;
constant_power_B 0;
constant_power_A 0;
nominal_voltage 120;
};

object fuse {
phases 3N;
from nodeF758419764;
name F7584;
current_limit 9999.0 A;
to node19776F7584;
};

object load {
phases 3N;
name 62463019058;
parent node62463019058T62463019150;
load_class R;
constant_power_C 10.6989;
constant_power_B 0;
constant_power_A 0;
nominal_voltage 120;
};

object load {
phases 3N;
name 62463019173;
parent node62463019058T62463019150;
load_class R;
constant_power_C 2.4552;
constant_power_B 0;
constant_power_A 0;
nominal_voltage 120;
};

object fuse {
phases 2N;
from nodeF758119596;
name F7581;
current_limit 9999.0 A;
to node19599F7581;
};

object load {
phases 2N;
name 62463020936;
parent node62463020936T62463020868;
load_class R;
constant_power_C 0;
constant_power_B 0;
constant_power_A 0;
nominal_voltage 120;
};

object load {
phases 2N;
name 62463019768;
parent node62463019768T62463020860;
load_class R;
constant_power_C 0;
constant_power_B 0.244763;
constant_power_A 0;
nominal_voltage 120;
};

object load {
phases 2N;
name 62463020699;
parent node62463019768T62463020860;
load_class R;
constant_power_C 0;
constant_power_B 1.81679;
constant_power_A 0;
nominal_voltage 120;
};

object load {
phases 2N;
name 62463021707;
parent node62463019768T62463020860;
load_class R;
constant_power_C 0;
constant_power_B 0.181679;
constant_power_A 0;
nominal_voltage 120;
};

object load {
phases 2N;
name 62463018993;
parent node62463018993T62463018961;
load_class R;
constant_power_C 0;
constant_power_B 1.67801;
constant_power_A 0;
nominal_voltage 120;
};

object fuse {
phases 3N;
from nodeF758019658;
name F7580;
current_limit 9999.0 A;
to node19652F7580;
};

object load {
phases 3N;
name 62463021455;
parent node62463021455T62463021550;
load_class R;
constant_power_C 2.91697;
constant_power_B 0;
constant_power_A 0;
nominal_voltage 120;
};

object load {
phases 3N;
name 62463021581;
parent node62463021455T62463021550;
load_class R;
constant_power_C 3.87835;
constant_power_B 0;
constant_power_A 0;
nominal_voltage 120;
};

object load {
phases 3N;
name 62463022467;
parent node62463021455T62463021550;
load_class R;
constant_power_C 2.62426;
constant_power_B 0;
constant_power_A 0;
nominal_voltage 120;
};

object load {
phases 2N;
name 62463024844;
parent node62463024844T62463025910;
load_class R;
constant_power_C 0;
constant_power_B 0.0176633;
constant_power_A 0;
nominal_voltage 120;
};

object fuse {
phases 7N;
from nodeF750858198;
name F7508;
current_limit 9999.0 A;
to node58181F7508;
};

object load {
phases 2N;
name 62474204023;
parent node62474204023T62474203073;
load_class R;
constant_power_C 0;
constant_power_B 3.82032;
constant_power_A 0;
nominal_voltage 120;
};

object load {
phases 2N;
name 62474204038;
parent node62474204023T62474203073;
load_class R;
constant_power_C 0;
constant_power_B 3.20715;
constant_power_A 0;
nominal_voltage 120;
};

object load {
phases 2N;
name 62474203084;
parent node62474204023T62474203073;
load_class R;
constant_power_C 0;
constant_power_B 2.82613;
constant_power_A 0;
nominal_voltage 120;
};

object load {
phases 2N;
name 62474202046;
parent node62474202046T62463022999;
load_class R;
constant_power_C 0;
constant_power_B 2.001;
constant_power_A 0;
nominal_voltage 120;
};

object load {
phases 2N;
name 62463023927;
parent node62474202046T62463022999;
load_class R;
constant_power_C 0;
constant_power_B 1.55437;
constant_power_A 0;
nominal_voltage 120;
};

object load {
phases 2N;
name 62463022995;
parent node62474202046T62463022999;
load_class R;
constant_power_C 0;
constant_power_B 2.7479;
constant_power_A 0;
nominal_voltage 120;
};

object load {
phases 2N;
name 62474201080;
parent node62474201080T62463022938;
load_class R;
constant_power_C 0;
constant_power_B 3.87331;
constant_power_A 0;
nominal_voltage 120;
};

object load {
phases 2N;
name 62463022936;
parent node62474201080T62463022938;
load_class R;
constant_power_C 0;
constant_power_B 1.2011;
constant_power_A 0;
nominal_voltage 120;
};

object load {
phases 3N;
name 62474202147;
parent node62474202147T62474202166;
load_class R;
constant_power_C 3.27023;
constant_power_B 0;
constant_power_A 0;
nominal_voltage 120;
};

object load {
phases 3N;
name 62474202144;
parent node62474202147T62474202166;
load_class R;
constant_power_C 2.19025;
constant_power_B 0;
constant_power_A 0;
nominal_voltage 120;
};

object load {
phases 2N;
name 62474202258;
parent node62474202258T62474202360;
load_class R;
constant_power_C 0;
constant_power_B 5.86584;
constant_power_A 0;
nominal_voltage 120;
};

object load {
phases 1N;
name 62474202354;
parent node62474202354T62474202362;
load_class R;
constant_power_C 0;
constant_power_B 0;
constant_power_A 2.24324;
nominal_voltage 120;
};

object load {
phases 1N;
name 62474202454;
parent node62474202454T62474202471;
load_class R;
constant_power_C 0;
constant_power_B 0;
constant_power_A 2.87155;
nominal_voltage 120;
};

object load {
phases 1N;
name 62474202349;
parent node62474202454T62474202471;
load_class R;
constant_power_C 0;
constant_power_B 0;
constant_power_A 1.6225;
nominal_voltage 120;
};

object load {
phases 1N;
name 62474202555;
parent node62474202555T62474202581;
load_class R;
constant_power_C 0;
constant_power_B 0;
constant_power_A 3.01285;
nominal_voltage 120;
};

object load {
phases 1N;
name 62474202540;
parent node62474202555T62474202581;
load_class R;
constant_power_C 0;
constant_power_B 0;
constant_power_A 5.62197;
nominal_voltage 120;
};

object load {
phases 2N;
name 62474202650;
parent node62474202650T62474202681;
load_class R;
constant_power_C 0;
constant_power_B 2.42744;
constant_power_A 0;
nominal_voltage 120;
};

object load {
phases 2N;
name 62474202663;
parent node62474202650T62474202681;
load_class R;
constant_power_C 0;
constant_power_B 2.46024;
constant_power_A 0;
nominal_voltage 120;
};

object load {
phases 2N;
name 62474202671;
parent node62474202650T62474202681;
load_class R;
constant_power_C 0;
constant_power_B 1.65026;
constant_power_A 0;
nominal_voltage 120;
};

object load {
phases 3N;
name 62474202679;
parent node62474202679T62474202791;
load_class R;
constant_power_C 3.91873;
constant_power_B 0;
constant_power_A 0;
nominal_voltage 120;
};

object load {
phases 2N;
name 62474204748;
parent node62474204748T62474204749;
load_class R;
constant_power_C 0;
constant_power_B 0;
constant_power_A 0;
nominal_voltage 120;
};

object load {
phases 2N;
name 62474204762;
parent node62474204748T62474204749;
load_class R;
constant_power_C 0;
constant_power_B 4.65301;
constant_power_A 0;
nominal_voltage 120;
};

object load {
phases 2N;
name 62474204880;
parent node62474204748T62474204749;
load_class R;
constant_power_C 0;
constant_power_B 1.65783;
constant_power_A 0;
nominal_voltage 120;
};

object load {
phases 2N;
name 62474204795;
parent node62474204748T62474204749;
load_class R;
constant_power_C 0;
constant_power_B 3.75976;
constant_power_A 0;
nominal_voltage 120;
};

object load {
phases 3N;
name 62474204990;
parent node62474204990T62474204859;
load_class R;
constant_power_C 2.42492;
constant_power_B 0;
constant_power_A 0;
nominal_voltage 120;
};

object load {
phases 3N;
name 62474205807;
parent node62474204990T62474204859;
load_class R;
constant_power_C 7.36307;
constant_power_B 0;
constant_power_A 0;
nominal_voltage 120;
};

object load {
phases 2N;
name 62474144036;
parent node62474144036T62474204979;
load_class R;
constant_power_C 0;
constant_power_B 4.5647;
constant_power_A 0;
nominal_voltage 120;
};

object load {
phases 2N;
name 62474145010;
parent node62474144036T62474204979;
load_class R;
constant_power_C 0;
constant_power_B 4.15087;
constant_power_A 0;
nominal_voltage 120;
};

object load {
phases 2N;
name 62474203981;
parent node62474203981T62474203987;
load_class R;
constant_power_C 0;
constant_power_B 7.19653;
constant_power_A 0;
nominal_voltage 120;
};

object load {
phases 2N;
name 62474143090;
parent node62474203981T62474203987;
load_class R;
constant_power_C 0;
constant_power_B 6.80289;
constant_power_A 0;
nominal_voltage 120;
};

object load {
phases 2N;
name 62474203952;
parent node62474203981T62474203987;
load_class R;
constant_power_C 0;
constant_power_B 7.32522;
constant_power_A 0;
nominal_voltage 120;
};

object load {
phases 2N;
name 62474143060;
parent node62474203981T62474203987;
load_class R;
constant_power_C 0;
constant_power_B 2.35679;
constant_power_A 0;
nominal_voltage 120;
};

object load {
phases 2N;
name 62474202953;
parent node62474202953T62474202989;
load_class R;
constant_power_C 0;
constant_power_B 3.78751;
constant_power_A 0;
nominal_voltage 120;
};

object load {
phases 2N;
name 62474142082;
parent node62474202953T62474202989;
load_class R;
constant_power_C 0;
constant_power_B 1.11026;
constant_power_A 0;
nominal_voltage 120;
};

object load {
phases 2N;
name 62474142051;
parent node62474202953T62474202989;
load_class R;
constant_power_C 0;
constant_power_B 4.48395;
constant_power_A 0;
nominal_voltage 120;
};

object load {
phases 2N;
name 62474202972;
parent node62474202953T62474202989;
load_class R;
constant_power_C 0;
constant_power_B 4.61769;
constant_power_A 0;
nominal_voltage 120;
};

object load {
phases 1N;
name 62474203871;
parent node62474203871T62474203769;
load_class R;
constant_power_C 0;
constant_power_B 0;
constant_power_A 3.22986;
nominal_voltage 120;
};

object load {
phases 1N;
name 62474203750;
parent node62474203871T62474203769;
load_class R;
constant_power_C 0;
constant_power_B 0;
constant_power_A 3.82032;
nominal_voltage 120;
};

object load {
phases 1N;
name 62474203842;
parent node62474203871T62474203769;
load_class R;
constant_power_C 0;
constant_power_B 0;
constant_power_A 5.47309;
nominal_voltage 120;
};

object load {
phases 1N;
name 62474203781;
parent node62474203871T62474203769;
load_class R;
constant_power_C 0;
constant_power_B 0;
constant_power_A 5.85916;
nominal_voltage 120;
};

object load {
phases 1N;
name 62474203572;
parent node62474203572T62474203566;
load_class R;
constant_power_C 0;
constant_power_B 0;
constant_power_A 1.91773;
nominal_voltage 120;
};

object load {
phases 1N;
name 62474203652;
parent node62474203572T62474203566;
load_class R;
constant_power_C 0;
constant_power_B 0;
constant_power_A 2.40978;
nominal_voltage 120;
};

object load {
phases 1N;
name 62474203552;
parent node62474203572T62474203566;
load_class R;
constant_power_C 0;
constant_power_B 0;
constant_power_A 5.45795;
nominal_voltage 120;
};

object load {
phases 1N;
name 62474203681;
parent node62474203572T62474203566;
load_class R;
constant_power_C 0;
constant_power_B 0;
constant_power_A 3.10621;
nominal_voltage 120;
};

object load {
phases 1N;
name 62474204552;
parent node62474204552T62474204575;
load_class R;
constant_power_C 0;
constant_power_B 0;
constant_power_A 2.22053;
nominal_voltage 120;
};

object load {
phases 1N;
name 62474204585;
parent node62474204552T62474204575;
load_class R;
constant_power_C 0;
constant_power_B 0;
constant_power_A 4.4032;
nominal_voltage 120;
};

object load {
phases 1N;
name 62474204662;
parent node62474204552T62474204575;
load_class R;
constant_power_C 0;
constant_power_B 0;
constant_power_A 6.45972;
nominal_voltage 120;
};

object load {
phases 1N;
name 62474205503;
parent node62474204552T62474204575;
load_class R;
constant_power_C 0;
constant_power_B 0;
constant_power_A 2.54856;
nominal_voltage 120;
};

object load {
phases 1N;
name 62474206532;
parent node62474206532T62474206505;
load_class R;
constant_power_C 0;
constant_power_B 0;
constant_power_A 2.05146;
nominal_voltage 120;
};

object load {
phases 1N;
name 62474206502;
parent node62474206532T62474206505;
load_class R;
constant_power_C 0;
constant_power_B 0;
constant_power_A 6.75494;
nominal_voltage 120;
};

object load {
phases 1N;
name 62474205692;
parent node62474205692T62474206624;
load_class R;
constant_power_C 0;
constant_power_B 0;
constant_power_A 2.58136;
nominal_voltage 120;
};

object load {
phases 1N;
name 62474206706;
parent node62474206706T62474206724;
load_class R;
constant_power_C 0;
constant_power_B 0;
constant_power_A 2.38202;
nominal_voltage 120;
};

object load {
phases 1N;
name 62474205793;
parent node62474206706T62474206724;
load_class R;
constant_power_C 0;
constant_power_B 0;
constant_power_A 2.91192;
nominal_voltage 120;
};

object load {
phases 1N;
name 62474205893;
parent node62474205893T62474206824;
load_class R;
constant_power_C 0;
constant_power_B 0;
constant_power_A 4.17358;
nominal_voltage 120;
};

object load {
phases 1N;
name 62474206806;
parent node62474205893T62474206824;
load_class R;
constant_power_C 0;
constant_power_B 0;
constant_power_A 2.72772;
nominal_voltage 120;
};

object load {
phases 1N;
name 62474146040;
parent node62474146040T62474206947;
load_class R;
constant_power_C 0;
constant_power_B 0;
constant_power_A 3.70172;
nominal_voltage 120;
};

object load {
phases 1N;
name 62474206918;
parent node62474146040T62474206947;
load_class R;
constant_power_C 0;
constant_power_B 0;
constant_power_A 3.82789;
nominal_voltage 120;
};

object load {
phases 1N;
name 62474206903;
parent node62474146040T62474206947;
load_class R;
constant_power_C 0;
constant_power_B 0;
constant_power_A 2.0767;
nominal_voltage 120;
};

object load {
phases 1N;
name 62474207930;
parent node62474207930T62474207936;
load_class R;
constant_power_C 0;
constant_power_B 0;
constant_power_A 6.65653;
nominal_voltage 120;
};

object load {
phases 1N;
name 62474206990;
parent node62474207930T62474207936;
load_class R;
constant_power_C 0;
constant_power_B 0;
constant_power_A 2.14987;
nominal_voltage 120;
};

object load {
phases 1N;
name 62474147020;
parent node62474207930T62474207936;
load_class R;
constant_power_C 0;
constant_power_B 0;
constant_power_A 2.82108;
nominal_voltage 120;
};

object load {
phases 1N;
name 62474207949;
parent node62474207930T62474207936;
load_class R;
constant_power_C 0;
constant_power_B 0;
constant_power_A 3.21724;
nominal_voltage 120;
};

object load {
phases 1N;
name 62474208819;
parent node62474208819T62474208904;
load_class R;
constant_power_C 0;
constant_power_B 0;
constant_power_A 4.58488;
nominal_voltage 120;
};

object load {
phases 1N;
name 62474148010;
parent node62474208819T62474208904;
load_class R;
constant_power_C 0;
constant_power_B 0;
constant_power_A 1.90763;
nominal_voltage 120;
};

object load {
phases 1N;
name 62474206893;
parent node62474206893T62474207830;
load_class R;
constant_power_C 0;
constant_power_B 0;
constant_power_A 7.14354;
nominal_voltage 120;
};

object load {
phases 1N;
name 62474207708;
parent node62474206893T62474207830;
load_class R;
constant_power_C 0;
constant_power_B 0;
constant_power_A 2.97752;
nominal_voltage 120;
};

object load {
phases 1N;
name 62474207880;
parent node62474206893T62474207830;
load_class R;
constant_power_C 0;
constant_power_B 0;
...